OPT_V9/My_campus_w_initial_sub_3_active_28_03_15_27/powerflow_results_t1.txt
Pandapower Network Debug Info
==================================================

BUS:
       vm_pu  va_degree      p_mw        q_mvar
0   1.003628   0.164011 -0.004004 -2.660716e-05
1   1.005258   0.236616 -0.001715 -7.882277e-07
2   1.006208   0.278852 -0.001057  0.000000e+00
3   1.004331   0.195294 -0.001057  0.000000e+00
4   1.001169   0.098846 -0.000846  4.187734e-04
5   1.002926   0.081512 -0.000123 -7.902019e-04
6   1.005630   0.202061 -0.003126  0.000000e+00
7   1.002133   0.101609 -0.003239 -5.502014e-06
8   1.000539   0.023801 -0.002257 -8.543799e-04
9   0.999951   0.002610  0.001822  9.833248e-03
10  0.999943   0.002879  0.002783  8.108654e-03
11  0.999937   0.003094  0.004553  1.121126e-02
12  0.999947   0.004403 -0.001558  5.584324e-03
13  0.999933   0.004695  0.002855  1.136530e-02
14  0.999926   0.004821  0.006969  9.924552e-03
15  0.999976   0.001635  0.000000  0.000000e+00
16  0.999976   0.001635  0.000000  0.000000e+00
17  0.999948   0.004268  0.000000  0.000000e+00
18  0.999948   0.004268  0.000000  0.000000e+00
19  1.000000   0.000000 -0.001381 -3.415413e-02
20  1.000000   0.000005  0.000000  0.000000e+00
21  1.000000   0.000000  0.001275 -3.066539e-02
22  1.000000   0.000004  0.000000  0.000000e+00
--------------------------------------------------

LINE:
    p_from_mw   q_from_mvar   p_to_mw     q_to_mvar         pl_mw       ql_mvar  i_from_ka   i_to_ka      i_ka  vm_from_pu  va_from_degree  vm_to_pu  va_to_degree  loading_percent
0    0.001371  3.015415e-02 -0.001370 -3.015345e-02  8.912285e-07  6.949055e-07   0.001162  0.001162  0.001162    1.000000        0.000005  0.999976      0.001635         0.505145
1   -0.001285  2.666540e-02  0.001287 -2.666391e-02  1.917057e-06  1.494761e-06   0.001028  0.001028  0.001028    1.000000        0.000004  0.999948      0.004268         0.446758
2    0.009160  2.915390e-02 -0.009159 -2.915334e-02  7.221634e-07  5.630827e-07   0.001176  0.001176  0.001176    0.999976        0.001635  0.999951      0.002610         0.511410
3   -0.001558  5.584333e-03  0.001558 -5.584324e-03  1.162506e-08  9.064252e-09   0.000223  0.000223  0.000223    0.999948        0.004268  0.999947      0.004403         0.097027
4    0.009824  2.129014e-02 -0.009824 -2.128990e-02  3.006499e-07  2.344216e-07   0.000903  0.000903  0.000903    0.999948        0.004268  0.999933      0.004695         0.392409
5   -0.007799 -3.485553e-07  0.007828  2.253409e-05  2.845333e-05  2.218553e-05   0.011258  0.011258  0.011258    0.999976        0.001635  1.003628      0.164011         4.894686
6   -0.003232 -7.769600e-04  0.003240  7.836430e-04  8.570990e-06  6.682942e-06   0.004798  0.004798  0.004798    0.999948        0.004268  1.002926      0.081512         2.085870
7   -0.003232  5.578719e-10  0.003239  5.502030e-06  7.057165e-06  5.502588e-06   0.004665  0.004665  0.004665    0.999948        0.004268  1.002133      0.101609         2.028241
8   -0.003100 -4.334496e-04  0.003102  4.347634e-04  1.684971e-06  1.313799e-06   0.004518  0.004518  0.004518    0.999948        0.004268  1.000539      0.023801         1.964547
9   -0.007336 -1.931997e-02  0.007337  1.932009e-02  1.477124e-07  1.151738e-07   0.000795  0.000795  0.000795    0.999943        0.002879  0.999951      0.002610         0.345862
10  -0.004553 -1.121126e-02  0.004553  1.121132e-02  7.161955e-08  5.584294e-08   0.000466  0.000466  0.000466    0.999937        0.003094  0.999943      0.002879         0.202513
11  -0.006969 -9.924552e-03  0.006969  9.924608e-03  7.193587e-08  5.608958e-08   0.000467  0.000467  0.000467    0.999926        0.004821  0.999933      0.004695         0.202959
12   0.002771  9.911051e-09 -0.002767  3.496441e-06  4.496958e-06  3.506352e-06   0.003979  0.003979  0.003979    1.005258        0.236616  1.003628      0.164011         1.730166
13   0.001057  4.387851e-11 -0.001056  5.767438e-07  7.397403e-07  5.767877e-07   0.001519  0.001519  0.001519    1.004331        0.195294  1.003628      0.164011         0.660550
14   0.001057  1.029636e-10 -0.001056  7.784281e-07  9.984798e-07  7.785311e-07   0.001516  0.001516  0.001516    1.006208        0.278852  1.005258      0.236616         0.659317
15  -0.000845  4.196166e-04  0.000846 -4.187734e-04  1.081391e-06  8.431781e-07   0.001361  0.001361  0.001361    1.000539        0.023801  1.001169      0.098846         0.591618
16   0.003126  2.670729e-10 -0.003118  6.558914e-06  8.412265e-06  6.559181e-06   0.004487  0.004487  0.004487    1.005630        0.202061  1.002926      0.081512         1.950712
--------------------------------------------------

TRAFO:
    p_hv_mw  q_hv_mvar   p_lv_mw     q_lv_mvar    pl_mw  ql_mvar   i_hv_ka   i_lv_ka  vm_hv_pu  va_hv_degree  vm_lv_pu  va_lv_degree  loading_percent
0 -0.007789   0.001000  0.007799  3.485531e-07  0.00001    0.001  0.000302  0.011258  0.999976      0.001635  0.999976      0.001635         0.078535
1 -0.009554  -0.000211  0.009564  1.210409e-03  0.00001    0.001  0.000368  0.013915  0.999948      0.004268  0.999948      0.004268         0.096403
2  0.001381   0.034154 -0.001371 -3.015415e-02  0.00001    0.004  0.000282  0.001162  1.000000      0.000000  1.000000      0.000005         0.085455
3 -0.001275   0.030665  0.001285 -2.666540e-02  0.00001    0.004  0.000253  0.001028  1.000000      0.000000  1.000000      0.000004         0.076730
--------------------------------------------------
